<?xml version="1.0" encoding="UTF-8"?>

<!-- generated on 2023-10-24 22:25:13 by Eclipse SUMO sumo Version 1.18.0
-->

<configuration xmlns:xsi="http://www.w3.org/2001/XMLSchema-instance" xsi:noNamespaceSchemaLocation="http://sumo.dlr.de/xsd/sumoConfiguration.xsd">

    <input>
        <net-file value="test.net.xml"/>
        <route-files value="test.rou.xml"/>
    </input>

    <time>
        <begin value="0"/>
        <end value="50"/>
    </time>

</configuration>
