<?xml version="1.0" encoding="UTF-8"?>

<!-- generated on 2023-10-16 16:10:07 by Eclipse SUMO netedit Version 1.18.0
<configuration xmlns:xsi="http://www.w3.org/2001/XMLSchema-instance" xsi:noNamespaceSchemaLocation="http://sumo.dlr.de/xsd/neteditConfiguration.xsd">

    <input>
        <sumocfg-file value="D:\Test SUMO\Test 1 sumo file.sumocfg"/>
        <route-files value="D:\Test SUMO\Test 1 Demand.rou.xml"/>
        <sumo-net-file value="D:\Test SUMO\Test 1.net.xml"/>
    </input>

    <output>
        <output-file value="D:\Test SUMO\Test 1.net.xml"/>
    </output>

    <processing>
        <offset.disable-normalization value="true"/>
    </processing>

    <junctions>
        <no-turnarounds value="true"/>
    </junctions>

    <netedit>
        <new-network value="false"/>
    </netedit>

</configuration>
-->

<net version="1.16" junctionCornerDetail="5" limitTurnSpeed="5.50" xmlns:xsi="http://www.w3.org/2001/XMLSchema-instance" xsi:noNamespaceSchemaLocation="http://sumo.dlr.de/xsd/net_file.xsd">

    <location netOffset="0.00,0.00" convBoundary="-4.76,17.80,118.78,76.34" origBoundary="10000000000.00,10000000000.00,-10000000000.00,-10000000000.00" projParameter="!"/>

    <edge id=":2_0" function="internal">
        <lane id=":2_0_0" index="0" speed="5.67" length="9.24" shape="44.26,69.89 46.78,71.05 48.62,70.91 49.78,69.48 50.26,66.74"/>
    </edge>
    <edge id=":2_1" function="internal">
        <lane id=":2_1_0" index="0" speed="9.77" length="12.40" shape="44.26,69.89 47.73,71.78 50.83,72.84 53.56,73.06 55.91,72.44"/>
    </edge>
    <edge id=":4_0" function="internal">
        <lane id=":4_0_0" index="0" speed="11.87" length="12.32" shape="46.34,19.04 49.51,17.82 52.28,17.05 55.06,16.97 58.21,17.83"/>
    </edge>
    <edge id=":4_1" function="internal">
        <lane id=":4_1_0" index="0" speed="6.18" length="4.48" shape="52.08,23.14 52.58,19.93 53.22,18.88"/>
    </edge>
    <edge id=":4_2" function="internal">
        <lane id=":4_2_0" index="0" speed="6.18" length="5.68" shape="53.22,18.88 53.77,17.98 55.65,17.27 58.21,17.83"/>
    </edge>

    <edge id="12" from="1" to="2" priority="-1">
        <lane id="12_0" index="0" speed="13.89" length="53.16" shape="-0.65,41.44 44.26,69.89"/>
    </edge>
    <edge id="14" from="1" to="4" priority="-1">
        <lane id="14_0" index="0" speed="13.89" length="50.01" shape="-0.24,37.25 46.34,19.04"/>
    </edge>
    <edge id="23" from="2" to="3" priority="-1">
        <lane id="23_0" index="0" speed="13.89" length="64.51" shape="55.91,72.44 114.11,44.61"/>
    </edge>
    <edge id="24" from="2" to="4" priority="-1">
        <lane id="24_0" index="0" speed="13.89" length="43.64" shape="50.26,66.74 52.08,23.14"/>
    </edge>
    <edge id="43" from="4" to="3" priority="-1">
        <lane id="43_0" index="0" speed="13.89" length="60.19" shape="58.21,17.83 113.98,40.47"/>
    </edge>

    <junction id="1" type="dead_end" x="-4.76" y="40.73" incLanes="" intLanes="" shape="-1.50,42.79 0.21,40.09 -0.34,39.58 -0.39,39.35 -0.30,39.13 -0.05,38.93 0.34,38.74 -0.83,35.76 -2.87,36.75 -4.14,37.81 -4.64,38.94 -4.36,40.15 -3.32,41.43"/>
    <junction id="2" type="priority" x="51.46" y="76.34" incLanes="12_0" intLanes=":2_0_0 :2_1_0" shape="56.60,73.88 55.22,71.00 53.25,71.30 52.58,70.81 52.12,69.90 51.89,68.57 51.86,66.81 48.66,66.68 48.20,68.66 47.69,69.14 47.01,69.28 46.15,69.08 45.12,68.53 43.41,71.24 46.01,72.73 48.45,73.80 50.73,74.45 52.85,74.68 54.81,74.49">
        <request index="0" response="00" foes="00" cont="0"/>
        <request index="1" response="00" foes="00" cont="0"/>
    </junction>
    <junction id="3" type="dead_end" x="118.78" y="44.15" incLanes="43_0 23_0" intLanes="" shape="114.58,38.99 113.38,41.95 114.00,42.34 114.08,42.54 114.01,42.74 113.79,42.95 113.42,43.16 114.80,46.05 116.98,44.81 118.28,43.59 118.69,42.40 118.21,41.24 116.84,40.10"/>
    <junction id="4" type="priority" x="53.90" y="17.80" incLanes="14_0 24_0" intLanes=":4_0_0 :4_2_0" shape="57.61,19.31 58.81,16.34 56.16,15.41 54.08,15.03 52.30,15.13 50.51,15.63 48.42,16.46 45.76,17.55 46.92,20.53 48.97,20.17 49.67,20.44 50.16,21.02 50.43,21.89 50.48,23.07 53.68,23.21 54.21,20.37 54.77,19.53 55.52,19.07 56.47,19.00">
        <request index="0" response="00" foes="10" cont="0"/>
        <request index="1" response="01" foes="01" cont="1"/>
    </junction>

    <junction id=":4_2_0" type="internal" x="53.22" y="18.88" incLanes=":4_1_0 14_0" intLanes=":4_0_0"/>

    <connection from="12" to="24" fromLane="0" toLane="0" via=":2_0_0" dir="r" state="M"/>
    <connection from="12" to="23" fromLane="0" toLane="0" via=":2_1_0" dir="R" state="M"/>
    <connection from="14" to="43" fromLane="0" toLane="0" via=":4_0_0" dir="s" state="M"/>
    <connection from="24" to="43" fromLane="0" toLane="0" via=":4_1_0" dir="l" state="m"/>

    <connection from=":2_0" to="24" fromLane="0" toLane="0" dir="r" state="M"/>
    <connection from=":2_1" to="23" fromLane="0" toLane="0" dir="R" state="M"/>
    <connection from=":4_0" to="43" fromLane="0" toLane="0" dir="s" state="M"/>
    <connection from=":4_1" to="43" fromLane="0" toLane="0" via=":4_2_0" dir="l" state="m"/>
    <connection from=":4_2" to="43" fromLane="0" toLane="0" dir="l" state="M"/>

</net>
