<?xml version="1.0" encoding="UTF-8"?>

<!-- generated on 2023-10-16 15:45:57 by Eclipse SUMO netedit Version 1.18.0
-->

<configuration xmlns:xsi="http://www.w3.org/2001/XMLSchema-instance" xsi:noNamespaceSchemaLocation="http://sumo.dlr.de/xsd/neteditConfiguration.xsd">

    <input>
        <sumo-net-file value="C:/Program%20Files%20(x86)/Eclipse/Sumo/Test%201.net.xml"/>
    </input>

    <output>
        <output-file value="C:/Program%20Files%20(x86)/Eclipse/Sumo/Test%201.net.xml"/>
    </output>

    <processing>
        <offset.disable-normalization value="true"/>
    </processing>

    <junctions>
        <no-turnarounds value="true"/>
    </junctions>

    <netedit>
        <new-network value="false"/>
    </netedit>

</configuration>
