<?xml version="1.0" encoding="UTF-8"?>

<!-- generated on 2023-10-16 16:07:55 by Eclipse SUMO netedit Version 1.18.0
-->

<routes xmlns:xsi="http://www.w3.org/2001/XMLSchema-instance" xsi:noNamespaceSchemaLocation="http://sumo.dlr.de/xsd/routes_file.xsd">
    <!-- Routes -->
    <route id="r_0" edges="12 23"/>
    <route id="r_1" edges="14 43"/>
    <route id="r_2" edges="12 24 43"/>
    <!-- Vehicles, persons and containers (sorted by depart) -->
    <vehicle id="v_0" depart="0.00" route="r_2"/>
    <vehicle id="v_1" depart="0.00" route="r_1"/>
    <vehicle id="v_2" depart="0.00" route="r_0"/>
    <vehicle id="v_3" depart="0.00" route="r_0"/>
    <vehicle id="v_4" depart="0.00" color="blue" route="r_1"/>
    <vehicle id="v_5" depart="0.00" color="blue" route="r_2"/>
</routes>
