<?xml version="1.0" encoding="UTF-8"?>

<!-- generated on 2023-10-16 23:47:14 by Eclipse SUMO netedit Version 1.18.0
<configuration xmlns:xsi="http://www.w3.org/2001/XMLSchema-instance" xsi:noNamespaceSchemaLocation="http://sumo.dlr.de/xsd/neteditConfiguration.xsd">

    <input>
        <sumo-net-file value="D:\Test SUMO\Four node network\fnn.net.xml"/>
    </input>

    <output>
        <output-file value="D:\Test SUMO\Four node network\fnn.net.xml"/>
    </output>

    <processing>
        <geometry.min-radius.fix.railways value="false"/>
        <geometry.max-grade.fix value="false"/>
        <offset.disable-normalization value="true"/>
        <lefthand value="0"/>
    </processing>

    <junctions>
        <no-turnarounds value="true"/>
        <junctions.corner-detail value="5"/>
        <junctions.limit-turn-speed value="5.50"/>
        <rectangular-lane-cut value="0"/>
    </junctions>

    <pedestrian>
        <walkingareas value="0"/>
    </pedestrian>

</configuration>
-->

<net version="1.16" junctionCornerDetail="5" limitTurnSpeed="5.50" xmlns:xsi="http://www.w3.org/2001/XMLSchema-instance" xsi:noNamespaceSchemaLocation="http://sumo.dlr.de/xsd/net_file.xsd">

    <location netOffset="0.00,0.00" convBoundary="-14.88,8.29,112.20,90.61" origBoundary="-10000000000.00,-10000000000.00,10000000000.00,10000000000.00" projParameter="!"/>

    <edge id=":2_0" function="internal">
        <lane id=":2_0_0" index="0" speed="5.58" length="9.36" shape="38.43,83.31 40.94,84.70 42.75,84.67 43.86,83.24 44.25,80.39"/>
    </edge>
    <edge id=":2_1" function="internal">
        <lane id=":2_1_0" index="0" speed="8.75" length="12.56" shape="38.43,83.31 41.90,85.47 44.99,86.62 47.68,86.73 49.99,85.83"/>
    </edge>
    <edge id=":4_0" function="internal">
        <lane id=":4_0_0" index="0" speed="9.40" length="12.47" shape="39.24,11.04 42.77,9.17 45.89,8.20 48.63,8.11 50.97,8.90"/>
    </edge>
    <edge id=":4_1" function="internal">
        <lane id=":4_1_0" index="0" speed="6.06" length="3.99" shape="45.04,14.31 45.45,10.68 45.61,10.38"/>
    </edge>
    <edge id=":4_2" function="internal">
        <lane id=":4_2_0" index="0" speed="6.06" length="6.71" shape="45.61,10.38 46.57,8.57 48.42,7.98 50.97,8.90"/>
    </edge>

    <edge id="e12" from="1" to="2" priority="-1">
        <lane id="e12_0" index="0" speed="13.89" length="61.98" shape="-11.67,46.82 38.43,83.31"/>
    </edge>
    <edge id="e14" from="1" to="4" priority="-1">
        <lane id="e14_0" index="0" speed="13.89" length="59.71" shape="-11.51,42.49 39.24,11.04"/>
    </edge>
    <edge id="e23" from="2" to="3" priority="-1">
        <lane id="e23_0" index="0" speed="13.89" length="70.72" shape="49.99,85.83 108.76,46.48"/>
    </edge>
    <edge id="e24" from="2" to="4" priority="-1">
        <lane id="e24_0" index="0" speed="13.89" length="66.09" shape="44.25,80.39 45.04,14.31"/>
    </edge>
    <edge id="e43" from="4" to="3" priority="-1">
        <lane id="e43_0" index="0" speed="13.89" length="66.55" shape="50.97,8.90 108.61,42.18"/>
    </edge>

    <junction id="1" type="dead_end" x="-14.88" y="46.46" incLanes="" intLanes="" shape="-12.62,48.11 -10.73,45.52 -11.26,44.94 -11.32,44.66 -11.24,44.39 -11.02,44.12 -10.67,43.85 -12.35,41.13 -14.75,43.37 -15.08,44.52 -14.83,45.70 -14.01,46.89"/>
    <junction id="2" type="priority" x="45.73" y="90.61" incLanes="e12_0" intLanes=":2_0_0 :2_1_0" shape="50.88,87.16 49.10,84.50 47.26,85.04 46.63,84.59 46.18,83.67 45.92,82.28 45.85,80.41 42.65,80.37 42.27,82.33 41.81,82.79 41.17,82.88 40.36,82.63 39.37,82.02 37.49,84.61 40.15,86.34 42.64,87.56 44.96,88.25 47.10,88.41 49.08,88.05">
        <request index="0" response="00" foes="00" cont="0"/>
        <request index="1" response="00" foes="00" cont="0"/>
    </junction>
    <junction id="3" type="dead_end" x="112.20" y="46.10" incLanes="e43_0 e23_0" intLanes="" shape="109.41,40.80 107.81,43.57 108.40,44.08 108.48,44.34 108.41,44.60 108.21,44.88 107.87,45.15 109.65,47.81 112.07,45.39 112.35,44.21 111.99,43.05 111.02,41.91"/>
    <junction id="4" type="priority" x="46.71" y="8.29" incLanes="e14_0 e24_0" intLanes=":4_0_0 :4_2_0" shape="50.17,10.29 51.77,7.52 48.01,6.44 45.87,6.58 43.55,7.16 41.06,8.19 38.40,9.68 40.09,12.40 41.97,11.67 42.62,11.81 43.09,12.30 43.36,13.12 43.44,14.29 46.64,14.33 47.06,11.19 47.56,10.30 48.24,9.85 49.11,9.85">
        <request index="0" response="00" foes="10" cont="0"/>
        <request index="1" response="01" foes="01" cont="1"/>
    </junction>

    <junction id=":4_2_0" type="internal" x="45.61" y="10.38" incLanes=":4_1_0 e14_0" intLanes=":4_0_0"/>

    <connection from="e12" to="e24" fromLane="0" toLane="0" via=":2_0_0" dir="r" state="M"/>
    <connection from="e12" to="e23" fromLane="0" toLane="0" via=":2_1_0" dir="R" state="M"/>
    <connection from="e14" to="e43" fromLane="0" toLane="0" via=":4_0_0" dir="l" state="M"/>
    <connection from="e24" to="e43" fromLane="0" toLane="0" via=":4_1_0" dir="l" state="m"/>

    <connection from=":2_0" to="e24" fromLane="0" toLane="0" dir="r" state="M"/>
    <connection from=":2_1" to="e23" fromLane="0" toLane="0" dir="R" state="M"/>
    <connection from=":4_0" to="e43" fromLane="0" toLane="0" dir="l" state="M"/>
    <connection from=":4_1" to="e43" fromLane="0" toLane="0" via=":4_2_0" dir="l" state="m"/>
    <connection from=":4_2" to="e43" fromLane="0" toLane="0" dir="l" state="M"/>

</net>
