<routes>
   <vType id="car"
          vtype="passenger" length="5" accel="3.5" decel="2.2" sigma="1.0" maxspeed="10"/>
   <vType id="ev"
           vtype="emergency" length="7" accel="5.5" decel="2.2" sigma="1.0" maxspeed="20" guishape="emergency"
           speedFactor="2.0" minGapLat="0.2"/>

   <route id="route_0" edges="e1 e2 e3 e4 e5 e6 e7 e8 e9" />
   <flow id="carflow" type="car" beg="0" end="0" number="5" from="e1" to="e8"/>
   <flow id="evflow" type="ev" beg="0" end="0" number="1" from="e1" to="e8"/>

   <!--<vehicle id="0" type="car" route="route_0" depart="0" />-->

</routes>